Sistemas teste e codigos/ConversaoFormatos_MatPower2pwf/Sistemas/107barras_renumerado.cdf
 0 /0 /0  Sistema-Teste de 107  100.0                                                                                         
BUS DATA FOLLOWS                       107 ITEMS                                                                              
   1  LCBARRET-4G  1     2  1.000    -24      0.0       0.0     300    -203     1.0            420    -540     0.0     0.0  0.0
   2  FURNAS---5G  1     2  1.000    -26      0.0       0.0     800    -134     1.0            480    -720     0.0     0.0  0.0
   3  ITUMBIAR-6G  1     3  1.020    -24      0.0       0.0   996.1    -399     1.0            600    -546     0.0     0.0  0.0
   4  MARIMBON-5G  1     2  1.010    -22      0.0       0.0     900    -321     1.0            640    -640     0.0     0.0  0.0
   5  MANSO----3G  3     2  1.000    -63      0.0       0.0     140   -21.6     1.0             84     -80     0.0     0.0  0.0
   6  M.MOR.A--3G  1     2  1.000    -20      0.0       0.0     150   -20.6     1.0            126    -120     0.0     0.0  0.0
   7  CORUMBA--2G  1     2  1.000    -27      0.0       0.0     200   -49.4     1.0            180    -180     0.0     0.0  0.0
   8  IBIUNA---4C  1     2  1.000    -42      0.0       0.0       0    -461     1.0           1200   -1080     0.0     0.0  0.0
   9  IBIUNA---34  1     0  1.033    -42       66       1.2     0.0     0.0     1.0            0.0     0.0     0.0     0.0  0.0
  10  MARIMBON-50  1     0  1.056    -28      0.0       0.0     0.0     0.0     1.0            0.0     0.0     0.0     0.0  0.0
  11  ARARAQUA-50  1     0  1.069    -36      0.0       0.0     0.0     0.0     1.0            0.0     0.0     0.0      -2  0.0
  12  POCOS----50  1     0  1.059    -43      0.0       0.0     0.0     0.0     1.0            0.0     0.0     0.0      -1  0.0
  13  CAMPINAS-50  1     0  1.072    -43      0.0       0.0     0.0     0.0     1.0            0.0     0.0     0.0     0.0  0.0
  14  C.PAULIS-50  1     0  1.061    -51      910       235     0.0     0.0     1.0            0.0     0.0     0.0     0.0  0.0
  15  ADRIANO--50  1     0  1.050    -52      0.0       0.0     0.0     0.0     1.0            0.0     0.0     0.0      -1  0.0
  16  P.CALDAS-34  1     0  1.041    -41      180        90     0.0     0.0     1.0            0.0     0.0     0.0     0.0  0.0
  17  IBIUNA---50  1     0  1.067    -41      200        38     0.0     0.0     1.0            0.0     0.0     0.0     0.0  0.0
  18  CAMPINAS-34  1     0  1.035    -46      450       175     0.0     0.0     1.0            0.0     0.0     0.0     0.0  0.0
  19  GUARULHOS34  1     0  1.037    -43      290        95     0.0     0.0     1.0            0.0     0.0     0.0     0.0  0.0
  20  M.MORAES-34  1     0  1.027    -27      0.0       0.0     0.0     0.0     1.0            0.0     0.0     0.0     0.0  0.0
  21  LBARRETO-34  1     0  1.027    -26      0.0       0.0     0.0     0.0     1.0            0.0     0.0     0.0     0.0  0.0
  22  FURNAS---34  1     0  1.028    -33       54        23     0.0     0.0     1.0            0.0     0.0     0.0     0.0  0.0
  23  ITUTINGA-34  1     0  1.036    -44       72        34     0.0     0.0     1.0            0.0     0.0     0.0     0.0  0.0
  24  ADRIANO--34  1     0  1.023    -53      700       250     0.0     0.0     1.0            0.0     0.0     0.0     0.0  0.0
  25  ITUMBIARA50  1     0  1.048    -27      0.0       0.0     0.0     0.0     1.0            0.0     0.0     0.0     0.0  0.0
  26  MARIMBON-34  1     0  1.050    -29       93        39     0.0     0.0     1.0            0.0     0.0     0.0     0.0  0.0
  27  PCOLOMBIA34  1     0  1.049    -28       53        25     0.0     0.0     1.0            0.0     0.0     0.0     0.0  0.0
  28  ITUMBIARA34  1     0  1.050    -32      364        58     0.0     0.0     1.0            0.0     0.0     0.0     0.0  0.0
  29  BANDEIRA-34  1     0  1.025    -40      600       200     0.0     0.0     1.0            0.0     0.0     0.0     0.0  0.0
  30  B.SUL----34  1     0  1.028    -39      0.0       0.0     0.0     0.0     1.0            0.0     0.0     0.0     0.0  0.0
  31  CORUMBA--34  1     0  1.052    -32      0.0       0.0     0.0     0.0     1.0            0.0     0.0     0.0     0.0  0.0
  32  ITUMBIARA23  1     0  1.000    -34      0.0       0.0     0.0     0.0     1.0            0.0     0.0     0.0     0.0  0.0
  33  B.SUL----23  1     0  1.016    -40       86        34     0.0     0.0     1.0            0.0     0.0     0.0     0.0  0.0
  34  R.VERDE-230  3     0  1.004    -49     89.7      31.9     0.0     0.0     1.0            0.0     0.0     0.0     0.0  0.0
  35  SAMAMBAI-50  1     0  1.039    -36      0.0       0.0     0.0     0.0     1.0            0.0     0.0     0.0     0.0  0.0
  36  SAMAMBAI-34  1     0  1.027    -39     1000       350     0.0     0.0     1.0            0.0     0.0     0.0     0.0  0.0
  37  EMBORCAC-3G  1     2  1.020    -19      0.0       0.0     700    -183     1.0            392    -440     0.0     0.0  0.0
  38  JAGUARA--4G  1     2  1.010    -19      0.0       0.0     300    -128     1.0            140    -140     0.0     0.0  0.0
  39  N.PONTE--3G  1     2  1.020    -18      0.0       0.0     400    -125     1.0            150    -150     0.0     0.0  0.0
  40  S.SIMAO--4G  1     2  1.020    -24      0.0       0.0     200    -279     1.0            600    -600     0.0     0.0  0.0
  41  V.GRANDE-4G  1     2  1.000    -22      0.0       0.0     300   -60.3     1.0            120    -120     0.0     0.0  0.0
  42  EMBORCAC-50  1     0  1.049    -24      0.0       0.0     0.0     0.0     1.0            0.0     0.0     0.0     0.0  0.0
  43  JAGUARA--50  1     0  1.046    -23      0.0       0.0     0.0     0.0     1.0            0.0     0.0     0.0     0.0  0.0
  44  JAGUARA--34  1     0  1.033    -26      274       104     0.0     0.0     1.0            0.0     0.0     0.0     0.0  0.0
  45  NPONTE---50  1     0  1.046    -22      0.0       0.0     0.0     0.0     1.0            0.0     0.0     0.0     0.0  0.0
  46  SSIMAO---50  1     0  1.049    -25      0.0       0.0     0.0     0.0     1.0            0.0     0.0     0.0     0.0  0.0
  47  VGRANDE--34  1     0  1.041    -26      0.0       0.0     0.0     0.0     1.0            0.0     0.0     0.0     0.0  0.0
  48  A.VERMEL-4G  1     2  1.020    -21      0.0       0.0     800    -118     1.0            540    -540     0.0     0.0  0.0
  49  AVERMELHA50  1     0  1.035    -26      0.0       0.0     0.0     0.0     1.0            0.0     0.0     0.0     0.0  0.0
  50  AVERMELH-44  1     0  1.023    -29      700       150     0.0     0.0     1.0            0.0     0.0     0.0     0.0  0.0
  51  GBMUNHOZ-2G  2     2  1.020   -6.9      0.0       0.0    1100   138.4     1.0            800    -800     0.0     0.0  0.0
  52  SCAXIAS--4G  2     2  1.020   3.72      0.0       0.0    1150   114.4     1.0            600    -600     0.0     0.0  0.0
  53  SSEGREDO-4G  2     2  1.020   -3.8      0.0       0.0    1200   -72.2     1.0            532    -400     0.0     0.0  0.0
  54  BATEIAS--23  2     0  1.000    -37    735.4       191     0.0     0.0     1.0            0.0     0.0     0.0     0.0  0.0
  55  GBMUNHOZ-50  2     0  1.038    -17      0.0       0.0     0.0     0.0     1.0            0.0     0.0     0.0     0.0  0.0
  56  S.MATEUS-23  2     0  0.991    -29     13.4       4.2     0.0     0.0     1.0            0.0     0.0     0.0     0.0  0.0
  57  CASCAVEL-23  2     0  0.999   -6.2      0.0       0.0     0.0     0.0     1.0            0.0     0.0     0.0     0.0  0.0
  58  CASCAVEL-13  2     0  0.986   -9.2      159        36     0.0     0.0     1.0            0.0     0.0     0.0     0.0  0.0
  59  FCHOPIM--13  2     0  0.999   -5.3       94        18     0.0     0.0     1.0            0.0     0.0     0.0     0.0  0.0
  60  SEGREDO--50  2     0  1.035    -11      0.0       0.0     0.0     0.0     1.0            0.0     0.0     0.0     0.0  0.0
  61  BATEIAS--50  2     0  1.044    -35      0.0       0.0     0.0     0.0     1.0            0.0     0.0     0.0     0.0  0.0
  62  CASCAVELO50  2     0  1.028   -4.1      0.0       0.0     0.0     0.0     1.0            0.0     0.0     0.0     0.0  0.0
  63  SCAXIAS--50  2     0  1.039   -2.8      0.0       0.0     0.0     0.0     1.0            0.0     0.0     0.0     0.0  0.0
  64  FCHOPIM--23  2     0  1.012   -1.9      0.0       0.0     0.0     0.0     1.0            0.0     0.0     0.0     0.0  0.0
  65  ITA------4G  2     2  1.020    -15      0.0       0.0     700    -236     1.0            475    -475     0.0     0.0  0.0
  66  MACHADIN-2G  2     2  1.020    -13      0.0       0.0     700    -109     1.0            465    -516     0.0     0.0  0.0
  67  SOSOR1A4-4G  2     2  1.000   5.98      0.0       0.0     700   89.06     1.0            220    -148     0.0     0.0  0.0
  68  SSANTIAG-3G  2     2  1.020  0.108      0.0       0.0     950   73.05     1.0            420    -440     0.0     0.0  0.0
  69  AREIA----50  2     0  1.038    -18      0.0       0.0     0.0     0.0     1.0            0.0     0.0     0.0     0.0  0.0
  70  AREIA----23  2     0  1.000    -18      237        59     0.0     0.0     1.0            0.0     0.0     0.0     0.0  0.0
  71  BLUMENAU-50  2     0  1.043    -37      0.0       0.0     0.0     0.0     1.0            0.0     0.0     0.0     0.0  0.0
  72  BLUMENAU-23  2     0  1.000    -40     1149     53.06     0.0     0.0     1.0            0.0     0.0     0.0     0.0  0.0
  73  CNOVOS---50  2     0  1.058    -23      0.0       0.0     0.0     0.0     1.0            0.0     0.0     0.0     0.0  0.0
  74  CURITIBA-50  2     0  1.033    -35      0.0       0.0     0.0     0.0     1.0            0.0     0.0     0.0       1  0.0
  75  CURITIBA-23  2     0  1.000    -37    844.7     469.1     0.0     0.0     1.0            0.0     0.0     0.0     0.0  0.0
  76  CAXIAS---50  2     0  1.037    -31      0.0       0.0     0.0     0.0     1.0            0.0     0.0     0.0     0.0  0.0
  77  CAXIAS---23  2     0  1.000    -33    755.6     56.24     0.0     0.0     1.0            0.0     0.0     0.0     0.0  0.0
  78  GRAVATAI-50  2     0  1.012    -33      0.0       0.0     0.0     0.0     1.0            0.0     0.0     0.0     0.0  0.0
  79  ITA------50  2     0  1.050    -19      0.0       0.0     0.0     0.0     1.0            0.0     0.0     0.0     0.0  0.0
  80  JOINVILLE23  2     0  0.998    -39       70         2     0.0     0.0     1.0            0.0     0.0     0.0     0.0  0.0
  81  MACHADIN-50  2     0  1.052    -21      0.0       0.0     0.0     0.0     1.0            0.0     0.0     0.0     0.0  0.0
  82  SOSORIO--23  2     0  1.017  -0.92      0.0       0.0     0.0     0.0     1.0            0.0     0.0     0.0     0.0  0.0
  83  SSANTIAG-50  2     0  1.043   -7.9      0.0       0.0     0.0     0.0     1.0            0.0     0.0     0.0     0.0  0.0
  84  GRAVATAI-23  2     0  1.000    -36     1228       425     0.0     0.0     1.0            0.0     0.0     0.0     0.0  0.0
  85  ITAJUBA--50  1     0  1.061    -49      0.0       0.0     0.0     0.0     1.0            0.0     0.0     0.0     0.0  0.0
  86  ITAJUBA--13  1     0  1.028    -53      145        63     0.0     0.0     1.0            0.0     0.0     0.0     0.0  0.0
  87  CASCAVEL-23  2     0  1.000   -6.4      403       126     0.0     0.0     1.0            0.0     0.0     0.0     0.0  0.0
  88  B.PEIXE--23  3     0  1.022    -61     31.4       7.1     0.0     0.0     1.0            0.0     0.0     0.0   -0.45  0.0
  89  ITIQUIRA-23  3     0  1.032    -67      0.0       0.0     0.0     0.0     1.0            0.0     0.0     0.0     0.0  0.0
  90  RONDONOP-23  3     0  1.030    -69      0.0       0.0     0.0     0.0     1.0            0.0     0.0     0.0    -0.2  0.0
  91  ITIQUIR--2G  3     2  1.010    -61      0.0       0.0      50   -8.21     1.0             30     -42     0.0     0.0  0.0
  92  COXIPO-CE-1  3     2  1.020    -73      0.0       0.0       0     0.0     1.0          63.96   -54.5     0.0     0.0  0.0
  93  COXIPO-230   3     0  1.040    -73      0.0       0.0     0.0     0.0     1.0            0.0     0.0     0.0     0.0  0.0
  94  COXIPO-138   3     0  1.014    -74     75.4      16.1     0.0     0.0     1.0            0.0     0.0     0.0     0.0  0.0
  95  NOBRES-230   3     0  1.025    -72      0.0       0.0     0.0     0.0     1.0            0.0     0.0     0.0     0.0  0.0
  96  N.MUTUM-230  3     0  1.006    -80     12.6       1.2     0.0     0.0     1.0            0.0     0.0     0.0    -0.2  0.0
  97  SORRISO-230  3     0  1.011    -88     23.8       7.4     0.0     0.0     1.0            0.0     0.0     0.0     0.0  0.0
  98  LUCAS-RV230  3     0  1.008    -85       18       6.4     0.0     0.0     1.0            0.0     0.0     0.0     0.0  0.0
  99  SINOP-230    3     0  1.017    -91     65.5      16.7     0.0     0.0     1.0            0.0     0.0     0.0     0.3  0.0
 100  MANSO-230    3     0  1.018    -68      0.0       0.0     0.0     0.0     1.0            0.0     0.0     0.0     0.0  0.0
 101  CBA--GAS-2G  3     2  1.000    -69      0.0       0.0     230   -27.3     1.0            160    -160     0.0     0.0  0.0
 102  RONDONOP-13  3     0  1.015    -72    128.2     40.76     0.0     0.0     1.0            0.0     0.0     0.0     0.0  0.0
 103  CUIABA-138   3     0  1.002    -75    182.1     29.75     0.0     0.0     1.0            0.0     0.0     0.0     0.0  0.0
 104  GUAPORE--2G  3     2  1.000    -75      0.0       0.0      50   -16.5     1.0             59     -86     0.0     0.0  0.0
 105  GUAPORE--13  3     0  1.024    -79      0.0       0.0     0.0     0.0     1.0            0.0     0.0     0.0     0.0  0.0
 106  JAURU-138    3     0  1.024    -80    128.9      36.3     0.0     0.0     1.0            0.0     0.0     0.0     0.0  0.0
 107  JAURU-230    3     0  1.046    -78      0.0       0.0     0.0     0.0     1.0            0.0     0.0     0.0    -0.3  0.0
-999
BRANCH DATA FOLLOWS                    171 ITEMS                                                                              
   9    8                 0.0  0.0071475       0.0                               1     0.0                                    
   9   17                 0.0    0.01913       0.0                               1     0.0                                    
   9   17                 0.0    0.01913       0.0                               1     0.0                                    
  10    4                 0.0    0.01264       0.0                               1     0.0                                    
  10   11             0.00172     0.0272     2.314                             0.0     0.0                                    
  10   11             0.00171      0.027     2.302                             0.0     0.0                                    
  10   25             0.00209    0.02935     2.546                             0.0     0.0                                    
  10   26                 0.0    0.02357       0.0                               1     0.0                                    
  10   49             0.00153      0.024     2.038                             0.0     0.0                                    
  11   12             0.00156     0.0246     2.085                             0.0     0.0                                    
  11   13             0.00152     0.0239     2.026                             0.0     0.0                                    
  12   16                 0.0    0.02403       0.0                               1     0.0                                    
  12   85              0.0011     0.0191    1.6185                             0.0     0.0                                    
  13   18                 0.0    0.02419       0.0                               1     0.0                                    
  14   13             0.00196      0.031     2.649                             0.0     0.0                                    
  14   85              0.0005     0.0082    0.6936                             0.0     0.0                                    
  15   14             0.00152     0.0239     2.027                             0.0     0.0                                    
  15   14             0.00152     0.0239     2.031                             0.0     0.0                                    
  15   24                 0.0    0.02923       0.0                               1     0.0                                    
  15   24                 0.0    0.02668       0.0                               1     0.0                                    
  17   13             0.00105    0.01619    1.3635                             0.0     0.0                                    
  18   16             0.00359    0.03945    0.6668                             0.0     0.0                                    
  19    9             0.00109    0.01826    0.5118                             0.0     0.0                                    
  19    9             0.00109    0.01824    0.5118                             0.0     0.0                                    
  19   16               0.006     0.0595     0.928                             0.0     0.0                                    
  19   16             0.00606     0.0602     0.938                             0.0     0.0                                    
  20    6                 0.0   0.088333       0.0                               1     0.0                                    
  21    1                 0.0    0.01335       0.0                           0.999     0.0                                    
  21   20             0.00092     0.0101     0.169                             0.0     0.0                                    
  21   47              0.0032    0.03509    0.5924                             0.0     0.0                                    
  22    2                 0.0    0.01536       0.0                               1     0.0                                    
  22   16             0.00436      0.043     0.666                             0.0     0.0                                    
  22   16             0.00436      0.043     0.666                             0.0     0.0                                    
  22   20             0.00348     0.0342     0.528                             0.0     0.0                                    
  22   21             0.00375     0.0413     0.699                             0.0     0.0                                    
  22   23             0.00649     0.0646     1.008                             0.0     0.0                                    
  22   23             0.00558     0.0619     1.057                             0.0     0.0                                    
  24   23             0.00652      0.065     1.014                             0.0     0.0                                    
  24   23             0.00558     0.0619     1.057                             0.0     0.0                                    
  25    3                 0.0  0.0066667       0.0                               1     0.0                                    
  25   28                 0.0     0.0172       0.0                               1     0.0                                    
  25   28                 0.0     0.0172       0.0                               1     0.0                                    
  25   46             0.00147     0.0232     1.966                             0.0     0.0                                    
  26   27             0.00219     0.0242     0.407                             0.0     0.0                                    
  27   47             0.00129    0.01414    0.2377                             0.0     0.0                                    
  28   27             0.00565    0.06248    1.0673                             0.0     0.0                                    
  28   29             0.00507     0.0561     0.956                             0.0     0.0                                    
  28   29             0.00507     0.0561     0.956                             0.0     0.0                                    
  29   36              0.0043    0.04799     0.822                             0.0     0.0                                    
  29   36              0.0043    0.04799     0.822                             0.0     0.0                                    
  30   36             0.00035    0.00433    0.0734                             0.0     0.0                                    
  30   36             0.00035    0.00433    0.0734                             0.0     0.0                                    
  31    7                 0.0   0.044965       0.0                           1.025     0.0                                    
  31   28             0.00226    0.02396   0.43235                             0.0     0.0                                    
  31   30             0.00726    0.07704    1.3801                             0.0     0.0                                    
  32   28                 0.0    0.02721       0.0                            0.95     0.0                                    
  32   28                 0.0    0.02938       0.0                            0.95     0.0                                    
  32   34               0.041     0.1976    0.3608                             0.0     0.0                                    
  32   34              0.0127     0.1362    0.4947                             0.0     0.0                                    
  33   30                 0.0    0.03595       0.0                               1     0.0                                    
  34   88              0.0451     0.2169    0.4025                             0.0     0.0                                    
  34   88              0.0149     0.1609     0.554                             0.0     0.0                                    
  35   25              0.0028     0.0399    3.5536                             0.0     0.0                                    
  35   42              0.0027     0.0387    3.4403                             0.0     0.0                                    
  36   35                 0.0    0.01113       0.0                               1     0.0                                    
  36   35                 0.0       0.01       0.0                               1     0.0                                    
  42   25             0.00125    0.01937    1.4996                             0.0     0.0                                    
  42   37                 0.0   0.013567       0.0                               1     0.0                                    
  42   45             0.00082    0.01256    0.9899                             0.0     0.0                                    
  43   38                 0.0   0.026325       0.0                               1     0.0                                    
  43   44                 0.0     0.0216       0.0                               1     0.0                                    
  43   44                 0.0     0.0216       0.0                               1     0.0                                    
  43   45               0.001    0.01519    1.1967                             0.0     0.0                                    
  43   46              0.0028     0.0484     4.195                             0.0     0.0                                    
  44   21              0.0007     0.0076   0.12287                             0.0     0.0                                    
  44   47              0.0024     0.0274    0.4547                             0.0     0.0                                    
  45   39                 0.0   0.019367       0.0                               1     0.0                                    
  46   40                 0.0   0.010575       0.0                               1     0.0                                    
  46   49            0.000931   0.013758     1.123                             0.0     0.0                                    
  47   41                 0.0      0.022       0.0                           1.025     0.0                                    
  49   48                 0.0    0.01025       0.0                               1     0.0                                    
  50   49                 0.0    0.01533       0.0                               1     0.0                                    
  50   49                 0.0     0.0142       0.0                               1     0.0                                    
  54   61             0.00032    0.01146       0.0                          0.9652     0.0                                    
  54   61              0.0003   0.011651       0.0                          0.9652     0.0                                    
  55   51                 0.0     0.0168       0.0                           1.024     0.0                                    
  55   69              0.0001    0.00124   0.15204                             0.0     0.0                                    
  55   69              0.0001    0.00126   0.15428                             0.0     0.0                                    
  56   70             0.02444    0.12652   0.21706                             0.0     0.0                                    
  57   58                 0.0     0.0664       0.0                               1     0.0                                    
  57   58                 0.0     0.0629       0.0                               1     0.0                                    
  57   64              0.0113     0.0699   0.12617                             0.0     0.0                                    
  57   82              0.0122     0.0769    0.1381                             0.0     0.0                                    
  57   87              0.0022     0.0109  0.018601                             0.0     0.0                                    
  57   87              0.0017     0.0103  0.020537                             0.0     0.0                                    
  60   53                 0.0     0.0105       0.0                               1     0.0                                    
  60   69             0.00052    0.00654   0.80493                             0.0     0.0                                    
  60   83             0.00056    0.00697   0.85746                             0.0     0.0                                    
  61   17             0.00308    0.03958    4.4484                             0.0     0.0                                    
  61   17             0.00308    0.03958    4.4484                             0.0     0.0                                    
  62   63              0.0005     0.0073    0.7806                             0.0     0.0                                    
  63   52                 0.0     0.0102       0.0                           1.024     0.0                                    
  64   59                 0.0     0.0636       0.0                               1     0.0                                    
  64   82              0.0015     0.0089  0.016317                             0.0     0.0                                    
  69   61               0.002     0.0255    3.1272                             0.0     0.0                                    
  69   73             0.00162    0.02048    2.5017                             0.0     0.0                                    
  69   74               0.002     0.0269     3.364                             0.0     0.0                                    
  70   69             0.00031    0.01207       0.0                          0.9747     0.0                                    
  70   82             0.03045    0.15738   0.27123                             0.0     0.0                                    
  70   82             0.03041    0.15718   0.27089                             0.0     0.0                                    
  71   73            0.002556   0.029224     3.604                             0.0     0.0                                    
  71   74             0.00127    0.01603    1.9589                             0.0     0.0                                    
  72   71             0.00031     0.0115       0.0                          0.9586     0.0                                    
  72   71             0.00032    0.01163       0.0                          0.9586     0.0                                    
  72   71                 0.0    0.01277       0.0                          0.9586     0.0                                    
  72   80             0.01271    0.06562   0.11305                             0.0     0.0                                    
  72   80             0.01283    0.06564   0.11522                             0.0     0.0                                    
  73   76            0.001877   0.023467    2.8724                             0.0     0.0                                    
  74   61              0.0005     0.0044    0.4758                             0.0     0.0                                    
  75   56              0.0221    0.11475   0.19687                             0.0     0.0                                    
  75   74             0.00032    0.01163       0.0                          0.9917     0.0                                    
  75   74             0.00031    0.01166       0.0                          0.9917     0.0                                    
  75   80             0.01892    0.09776   0.16845                             0.0     0.0                                    
  75   80             0.01895    0.09704   0.17029                             0.0     0.0                                    
  76   78            0.000733   0.009164    1.1217                             0.0     0.0                                    
  77   76              0.0002    0.01211       0.0                          0.9717     0.0                                    
  77   76              0.0002    0.01233       0.0                          0.9717     0.0                                    
  78   79             0.00282    0.03852     4.937                             0.0     0.0                                    
  79   65                 0.0   0.011538       0.0                               1     0.0                                    
  79   76            0.001643   0.030339    3.5488                             0.0     0.0                                    
  79   81             0.00073     0.0092    1.1226                             0.0     0.0                                    
  79   83             0.00172     0.0217    2.6516                             0.0     0.0                                    
  81   66                 0.0   0.020655       0.0                               1     0.0                                    
  81   73             0.00047     0.0059   0.71818                             0.0     0.0                                    
  82   67                 0.0   0.017022       0.0                           1.025     0.0                                    
  83   63             0.00076    0.01171    1.2458                             0.0     0.0                                    
  83   68                 0.0    0.01515       0.0                           1.024     0.0                                    
  84   78              0.0003    0.01219       0.0                            1.01     0.0                                    
  84   78             0.00039    0.01138       0.0                            1.01     0.0                                    
  84   78             0.00036    0.01217       0.0                            1.01     0.0                                    
  85   86                 0.0      0.052       0.0                          0.9986     0.0                                    
  87   62                 0.0     0.0127       0.0                          0.9938     0.0                                    
  88   90              0.0376     0.2068    0.3566                             0.0     0.0                                    
  88   90              0.0164     0.1246     0.615                             0.0     0.0                                    
  89   91                 0.0     0.2071       0.0                               1     0.0                                    
  90   89              0.0153      0.076    0.1425                             0.0     0.0                                    
  90   93              0.0325     0.1792    0.3275                             0.0     0.0                                    
  90   93              0.0325     0.1792    0.3275                             0.0     0.0                                    
  90  102                 0.0     0.0795       0.0                               1     0.0                                    
  90  102                 0.0     0.0795       0.0                               1     0.0                                    
  93   92                 0.0      0.143       0.0                               1     0.0                                    
  93   94                 0.0      0.086       0.0                               1     0.0                                    
  93   94                 0.0      0.086       0.0                               1     0.0                                    
  93   94                 0.0      0.086       0.0                               1     0.0                                    
  93   95              0.0162     0.0968    0.1915                             0.0     0.0                                    
  94  101                 0.0   0.037635       0.0                               1     0.0                                    
  95   96              0.0183     0.1093     0.186                             0.0     0.0                                    
  96   98               0.014     0.0838      0.17                             0.0     0.0                                    
  97   98              0.0094     0.0559   0.10644                             0.0     0.0                                    
  97   99              0.0124     0.0738    0.1328                             0.0     0.0                                    
 100    5                 0.0      0.064       0.0                               1     0.0                                    
 100   95                0.01     0.0617     0.126                             0.0     0.0                                    
 102   94              0.1706      0.455    0.1139                             0.0     0.0                                    
 103   94               0.009     0.0231    0.0058                             0.0     0.0                                    
 103   94               0.009     0.0231    0.0058                             0.0     0.0                                    
 105  104                 0.0    0.13333       0.0                               1     0.0                                    
 105  106             0.03089    0.08134   0.02085                             0.0     0.0                                    
 105  106             0.03089    0.08134   0.02085                             0.0     0.0                                    
 107   93              0.0257     0.2368    0.9742                             0.0     0.0                                    
 107   93              0.0257     0.2368    0.9742                             0.0     0.0                                    
 107  106                 0.0     0.0405       0.0                               1     0.0                                    
-999
END OF DATA
